<?xml version="1.0" encoding="UTF-8"?>
<additional>

    <tlLogic id="center" type="static" programID="0" offset="0">

        <!-- NS Green -->
        <phase duration="30" state="GrGr"/>
        
        <!-- Yellow -->
        <phase duration="5" state="yryr"/>

        <!-- EW Green -->
        <phase duration="30" state="rGrG"/>

        <!-- Yellow -->
        <phase duration="5" state="ryry"/>

    </tlLogic>

</additional>